1a46_ligand
  -I-interpret- 

 85 88  0  0  0  0  0  0  0  0999 V2000
   17.8330  -13.0420   21.6620 C   0  0  0  0  0
   18.8870  -13.0710   20.5870 C   0  0  0  0  0
   19.8510  -14.2200   21.1170 C   0  0  0  0  0
   19.3270  -16.4440   22.1560 C   0  0  0  0  0
   18.1340  -17.2300   22.7620 C   0  0  0  0  0
   17.2230  -16.3290   23.5970 C   0  0  0  0  0
   17.0320  -14.9230   23.0460 C   0  0  0  0  0
   18.8520  -15.2420   21.4440 N   0  3  0  0  0
   17.7750  -14.5090   22.0480 N   0  0  0  0  0
   15.9850  -14.2900   23.3800 O   0  0  0  0  0
   16.6380  -13.0610   20.7550 C   0  0  0  0  0
   16.4620  -13.9620   19.8370 O   0  0  0  0  0
   15.8090  -16.7300   23.6610 N   0  3  0  0  0
   17.4150  -16.4170   25.1230 C   0  0  0  0  0
   18.7640  -15.9840   25.5820 C   0  0  0  0  0
   19.0510  -14.6340   25.7600 C   0  0  0  0  0
   20.3910  -14.2520   26.0760 C   0  0  0  0  0
   21.4290  -15.1780   26.2150 C   0  0  0  0  0
   21.0990  -16.5480   26.0980 C   0  0  0  0  0
   19.7890  -16.9510   25.7560 C   0  0  0  0  0
   15.6470  -12.0890   20.7690 N   0  0  0  0  0
   14.4940  -11.8920   19.9090 C   0  0  0  0  0
   14.4960  -10.9450   18.7130 C   0  0  0  0  0
   13.3800  -10.6840   18.0770 O   0  0  0  0  0
   13.1950  -11.6150   20.6280 C   0  0  0  0  0
   12.8670  -12.5040   21.7570 C   0  0  0  0  0
   11.5610  -12.2200   22.4370 C   0  0  0  0  0
   11.1700  -13.3510   23.3530 C   0  0  0  0  0
   10.0380  -13.1110   24.2350 N   0  3  0  0  0
   14.8040  -11.9210   16.4570 N   0  0  0  0  0
   15.3450  -11.4350   17.5510 C   0  0  0  0  0
   16.4740  -11.0890   17.7310 O   0  0  0  0  0
   15.6510  -12.3330   15.3350 C   0  0  0  0  0
   16.0390  -13.7960   15.2500 C   0  0  0  0  0
   14.9560  -14.6030   14.5390 C   0  0  0  0  0
   14.5990  -13.9990   13.1800 C   0  0  0  0  0
   14.1680  -12.5610   13.3540 C   0  0  0  0  0
   15.2770  -11.7400   13.9980 C   0  0  0  0  0
   17.9332  -12.2994   22.4536 H   0  0  0  0  0
   19.3882  -12.1140   20.4420 H   0  0  0  0  0
   18.4882  -13.2617   19.5906 H   0  0  0  0  0
   20.4926  -13.9283   21.9484 H   0  0  0  0  0
   20.6127  -14.5392   20.4056 H   0  0  0  0  0
   19.8508  -17.0880   21.4496 H   0  0  0  0  0
   19.9921  -16.1358   22.9627 H   0  0  0  0  0
   18.5327  -18.0092   23.4116 H   0  0  0  0  0
   17.5467  -17.6450   21.9429 H   0  0  0  0  0
   18.5389  -15.7277   20.6035 H   0  0  0  0  0
   15.7428  -17.6818   24.0216 H   0  0  0  0  0
   15.3044  -16.0949   24.2794 H   0  0  0  0  0
   15.4029  -16.6903   22.7262 H   0  0  0  0  0
   17.2937  -17.4623   25.4072 H   0  0  0  0  0
   16.6848  -15.7509   25.5825 H   0  0  0  0  0
   18.2682  -13.8821   25.6602 H   0  0  0  0  0
   20.6133  -13.1939   26.2145 H   0  0  0  0  0
   22.4528  -14.8565   26.4061 H   0  0  0  0  0
   21.8654  -17.3029   26.2740 H   0  0  0  0  0
   19.5640  -18.0094   25.6250 H   0  0  0  0  0
   15.7457  -11.3948   21.5098 H   0  0  0  0  0
   14.5905  -12.8910   19.4839 H   0  0  0  0  0
   14.8425  -10.0689   19.2612 H   0  0  0  0  0
   13.5584  -10.0751   17.3566 H   0  0  0  0  0
   12.4050  -11.7585   19.8909 H   0  0  0  0  0
   13.2901  -10.6141   21.0491 H   0  0  0  0  0
   13.6465  -12.3595   22.5050 H   0  0  0  0  0
   12.7942  -13.5124   21.3496 H   0  0  0  0  0
   10.7892  -12.1043   21.6761 H   0  0  0  0  0
   11.6663  -11.3113   23.0296 H   0  0  0  0  0
   12.0278  -13.5229   24.0031 H   0  0  0  0  0
   10.8774  -14.1769   22.7046 H   0  0  0  0  0
    9.8690  -13.9413   24.8029 H   0  0  0  0  0
   10.2441  -12.3181   24.8427 H   0  0  0  0  0
    9.2101  -12.9059   23.6756 H   0  0  0  0  0
   13.7904  -12.0118   16.3885 H   0  0  0  0  0
   16.5871  -11.8550   15.6237 H   0  0  0  0  0
   16.1623  -14.1864   16.2602 H   0  0  0  0  0
   16.9681  -13.8812   14.6864 H   0  0  0  0  0
   14.0613  -14.5994   15.1616 H   0  0  0  0  0
   15.3317  -15.6133   14.3772 H   0  0  0  0  0
   13.7819  -14.5683   12.7368 H   0  0  0  0  0
   15.4725  -14.0364   12.5291 H   0  0  0  0  0
   13.2893  -12.5323   13.9983 H   0  0  0  0  0
   13.9420  -12.1402   12.3742 H   0  0  0  0  0
   16.1510  -11.7459   13.3467 H   0  0  0  0  0
   14.9268  -10.7183   14.1449 H   0  0  0  0  0
  2  1  1  0  0  0
  1  9  1  0  0  0
  1 11  1  0  0  0
  3  2  1  0  0  0
  8  3  1  0  0  0
  4  5  1  0  0  0
  4  8  1  0  0  0
  5  6  1  0  0  0
  6  7  1  0  0  0
  6 13  1  0  0  0
  6 14  1  0  0  0
  7  9  1  0  0  0
  7 10  2  0  0  0
  8  9  1  0  0  0
 11 12  2  0  0  0
 11 21  1  0  0  0
 14 15  1  0  0  0
 15 16  4  0  0  0
 15 20  4  0  0  0
 16 17  4  0  0  0
 17 18  4  0  0  0
 18 19  4  0  0  0
 19 20  4  0  0  0
 21 22  1  0  0  0
 22 23  1  0  0  0
 22 25  1  0  0  0
 23 24  1  0  0  0
 23 31  1  0  0  0
 25 26  1  0  0  0
 26 27  1  0  0  0
 27 28  1  0  0  0
 28 29  1  0  0  0
 31 30  1  0  0  0
 30 33  1  0  0  0
 31 32  2  0  0  0
 33 34  1  0  0  0
 33 38  1  0  0  0
 34 35  1  0  0  0
 35 36  1  0  0  0
 36 37  1  0  0  0
 37 38  1  0  0  0
  1 39  1  0  0  0
  2 40  1  0  0  0
  2 41  1  0  0  0
  3 42  1  0  0  0
  3 43  1  0  0  0
  4 44  1  0  0  0
  4 45  1  0  0  0
  5 46  1  0  0  0
  5 47  1  0  0  0
  8 48  1  0  0  0
 13 49  1  0  0  0
 13 50  1  0  0  0
 13 51  1  0  0  0
 14 52  1  0  0  0
 14 53  1  0  0  0
 16 54  1  0  0  0
 17 55  1  0  0  0
 18 56  1  0  0  0
 19 57  1  0  0  0
 20 58  1  0  0  0
 21 59  1  0  0  0
 22 60  1  0  0  0
 23 61  1  0  0  0
 24 62  1  0  0  0
 25 63  1  0  0  0
 25 64  1  0  0  0
 26 65  1  0  0  0
 26 66  1  0  0  0
 27 67  1  0  0  0
 27 68  1  0  0  0
 28 69  1  0  0  0
 28 70  1  0  0  0
 29 71  1  0  0  0
 29 72  1  0  0  0
 29 73  1  0  0  0
 30 74  1  0  0  0
 33 75  1  0  0  0
 34 76  1  0  0  0
 34 77  1  0  0  0
 35 78  1  0  0  0
 35 79  1  0  0  0
 36 80  1  0  0  0
 36 81  1  0  0  0
 37 82  1  0  0  0
 37 83  1  0  0  0
 38 84  1  0  0  0
 38 85  1  0  0  0
M  END
$$$$
