6o5u_ligand
  -I-interpret- 

 73 75  0  0  0  0  0  0  0  0999 V2000
  108.6730  -18.4700   -7.8360 C   0  0  0  0  0
  107.3110  -18.9740   -7.3680 C   0  0  0  0  0
  107.4800  -20.3570   -6.7640 C   0  0  0  0  0
  108.0820  -21.2810   -7.8150 C   0  0  0  0  0
  109.3440  -20.6380   -8.3930 C   0  0  0  0  0
  109.7960  -21.4700   -9.5890 C   0  0  0  0  0
  112.5990  -15.8100   -5.7750 C   0  0  0  0  0
  112.1040  -15.6660   -7.2080 C   0  0  0  0  0
  110.7540  -16.3630   -7.2880 C   0  0  0  0  0
  110.8240  -17.8460   -6.8990 C   0  0  0  0  0
  111.5110  -18.0160   -5.5370 C   0  0  0  0  0
  112.8430  -17.2770   -5.4680 C   0  0  0  0  0
  112.8110  -13.7240   -8.4160 C   0  0  0  0  0
  112.9750  -12.2640   -8.0080 C   0  0  0  0  0
  111.6610  -11.5000   -8.1330 C   0  0  0  0  0
  111.2120  -11.6530   -9.5690 C   0  0  0  0  0
  111.1210  -13.1180   -9.9350 C   0  0  0  0  0
  110.8030  -13.1430  -11.4220 C   0  0  0  0  0
  110.9760  -20.8510  -10.1750 N   0  3  0  0  0
  111.7470  -19.4450   -5.3220 N   0  3  0  0  0
  113.8400  -15.0670   -5.6100 N   0  3  0  0  0
  111.8410  -10.0810   -7.8770 N   0  3  0  0  0
  109.1180  -19.3280   -8.8520 O   0  0  0  0  0
  106.8170  -18.1010   -6.3680 O   0  0  0  0  0
  106.1940  -20.8240   -6.3760 O   0  0  0  0  0
  108.4250  -22.5370   -7.2480 O   0  0  0  0  0
  109.5510  -18.4650   -6.7100 O   0  0  0  0  0
  110.3630  -16.2700   -8.6430 O   0  0  0  0  0
  111.9040  -14.2970   -7.4880 O   0  0  0  0  0
  112.3420  -13.8090   -9.7580 O   0  0  0  0  0
  113.3340  -12.2190   -6.6510 O   0  0  0  0  0
  109.9130  -11.0980   -9.7100 O   0  0  0  0  0
  110.7860  -14.4810  -11.8020 O   0  0  0  0  0
  108.6303  -17.4570   -8.2362 H   0  0  0  0  0
  106.6193  -19.0120   -8.2095 H   0  0  0  0  0
  108.1401  -20.3313   -5.8970 H   0  0  0  0  0
  107.3417  -21.4380   -8.5994 H   0  0  0  0  0
  110.0905  -20.6009   -7.5997 H   0  0  0  0  0
  108.9974  -21.5151  -10.3294 H   0  0  0  0  0
  110.0340  -22.4829   -9.2644 H   0  0  0  0  0
  111.8471  -15.4154   -5.0916 H   0  0  0  0  0
  112.8209  -16.0908   -7.9107 H   0  0  0  0  0
  110.0567  -15.8930   -6.5945 H   0  0  0  0  0
  111.3562  -18.3049   -7.7322 H   0  0  0  0  0
  110.8622  -17.5955   -4.7687 H   0  0  0  0  0
  113.2743  -17.3813   -4.4724 H   0  0  0  0  0
  113.5390  -17.6975   -6.1939 H   0  0  0  0  0
  113.7563  -14.2662   -8.3935 H   0  0  0  0  0
  113.7270  -11.8166   -8.6580 H   0  0  0  0  0
  110.9429  -11.8905   -7.4119 H   0  0  0  0  0
  111.9311  -11.1480  -10.2139 H   0  0  0  0  0
  110.3778  -13.5999   -9.2998 H   0  0  0  0  0
  111.5492  -12.5865  -11.9892 H   0  0  0  0  0
  109.8423  -12.6689  -11.6228 H   0  0  0  0  0
  111.2850  -21.4016  -10.9761 H   0  0  0  0  0
  110.7465  -19.9049  -10.4794 H   0  0  0  0  0
  111.7205  -20.8142   -9.4787 H   0  0  0  0  0
  112.2040  -19.5810   -4.4203 H   0  0  0  0  0
  110.8556  -19.9407   -5.3310 H   0  0  0  0  0
  112.3452  -19.8052   -6.0655 H   0  0  0  0  0
  114.1687  -15.1655   -4.6495 H   0  0  0  0  0
  114.5431  -15.4352   -6.2507 H   0  0  0  0  0
  113.6746  -14.0815   -5.8147 H   0  0  0  0  0
  110.9443   -9.6037   -7.9692 H   0  0  0  0  0
  112.2015   -9.9503   -6.9318 H   0  0  0  0  0
  112.5031   -9.6965   -8.5509 H   0  0  0  0  0
  106.7059  -17.2223   -6.7383 H   0  0  0  0  0
  105.8266  -20.2335   -5.7143 H   0  0  0  0  0
  107.6379  -22.9476   -6.8827 H   0  0  0  0  0
  109.5104  -16.6957   -8.7588 H   0  0  0  0  0
  113.4409  -11.3044   -6.3796 H   0  0  0  0  0
  109.6229  -11.1925  -10.6202 H   0  0  0  0  0
  110.5878  -14.5438  -12.7392 H   0  0  0  0  0
  1  2  1  0  0  0
  1 23  1  0  0  0
 27  1  1  0  0  0
  2  3  1  0  0  0
  2 24  1  0  0  0
  3  4  1  0  0  0
  3 25  1  0  0  0
  5  4  1  0  0  0
  4 26  1  0  0  0
  5  6  1  0  0  0
 23  5  1  0  0  0
  6 19  1  0  0  0
  8  7  1  0  0  0
  7 12  1  0  0  0
  7 21  1  0  0  0
  8  9  1  0  0  0
 29  8  1  0  0  0
  9 10  1  0  0  0
  9 28  1  0  0  0
 10 11  1  0  0  0
 10 27  1  0  0  0
 12 11  1  0  0  0
 11 20  1  0  0  0
 13 14  1  0  0  0
 13 29  1  0  0  0
 13 30  1  0  0  0
 14 15  1  0  0  0
 14 31  1  0  0  0
 15 16  1  0  0  0
 15 22  1  0  0  0
 16 17  1  0  0  0
 16 32  1  0  0  0
 17 18  1  0  0  0
 17 30  1  0  0  0
 18 33  1  0  0  0
  1 34  1  0  0  0
  2 35  1  0  0  0
  3 36  1  0  0  0
  4 37  1  0  0  0
  5 38  1  0  0  0
  6 39  1  0  0  0
  6 40  1  0  0  0
  7 41  1  0  0  0
  8 42  1  0  0  0
  9 43  1  0  0  0
 10 44  1  0  0  0
 11 45  1  0  0  0
 12 46  1  0  0  0
 12 47  1  0  0  0
 13 48  1  0  0  0
 14 49  1  0  0  0
 15 50  1  0  0  0
 16 51  1  0  0  0
 17 52  1  0  0  0
 18 53  1  0  0  0
 18 54  1  0  0  0
 19 55  1  0  0  0
 19 56  1  0  0  0
 19 57  1  0  0  0
 20 58  1  0  0  0
 20 59  1  0  0  0
 20 60  1  0  0  0
 21 61  1  0  0  0
 21 62  1  0  0  0
 21 63  1  0  0  0
 22 64  1  0  0  0
 22 65  1  0  0  0
 22 66  1  0  0  0
 24 67  1  0  0  0
 25 68  1  0  0  0
 26 69  1  0  0  0
 28 70  1  0  0  0
 31 71  1  0  0  0
 32 72  1  0  0  0
 33 73  1  0  0  0
M  END
$$$$
